<?xml version="1.0" encoding="UTF-8"?>

<!-- generated on Mon Aug 13 22:39:11 2018 by SUMO netconvert Version 0.25.0
<?xml version="1.0" encoding="UTF-8"?>

<configuration xmlns:xsi="http://www.w3.org/2001/XMLSchema-instance" xsi:noNamespaceSchemaLocation="http://sumo.dlr.de/xsd/netconvertConfiguration.xsd">

    <input>
        <node-files value="cenario.nod.xml"/>
        <edge-files value="cenario.edg.xml"/>
    </input>

    <output>
        <output-file value="cenario.net.xml"/>
    </output>

</configuration>
-->

<net version="0.25" xmlns:xsi="http://www.w3.org/2001/XMLSchema-instance" xsi:noNamespaceSchemaLocation="http://sumo.dlr.de/xsd/net_file.xsd">

    <location netOffset="0.00,0.00" convBoundary="0.00,0.00,400.00,300.00" origBoundary="0.00,0.00,400.00,300.00" projParameter="!"/>

    <edge id=":1_0" function="internal">
        <lane id=":1_0_0" index="0" speed="10.00" length="12.85" shape="98.50,-8.25 102.31,-8.25 104.93,-8.25 107.54,-8.25 111.35,-8.25"/>
        <lane id=":1_0_1" index="1" speed="10.00" length="12.85" shape="98.50,-4.95 102.31,-4.95 104.93,-4.95 107.54,-4.95 111.35,-4.95"/>
        <lane id=":1_0_2" index="2" speed="10.00" length="12.85" shape="98.50,-1.65 102.31,-1.65 104.93,-1.65 107.54,-1.65 111.35,-1.65"/>
    </edge>
    <edge id=":1_3" function="internal">
        <lane id=":1_3_0" index="0" speed="10.00" length="7.95" shape="98.50,-1.65 102.77,-1.46 105.81,-0.88 107.64,0.09 108.25,1.45"/>
        <lane id=":1_3_1" index="1" speed="10.00" length="7.95" shape="98.50,-1.65 101.32,-1.46 103.34,-0.88 104.55,0.09 104.95,1.45"/>
        <lane id=":1_3_2" index="2" speed="10.00" length="7.95" shape="98.50,-1.65 99.88,-1.46 100.86,-0.88 101.45,0.09 101.65,1.45"/>
    </edge>
    <edge id=":10_0" function="internal">
        <lane id=":10_0_0" index="0" speed="10.00" length="7.91" shape="8.25,188.65 8.44,190.01 9.03,190.97 9.99,191.56 11.35,191.75"/>
        <lane id=":10_0_1" index="1" speed="10.00" length="7.91" shape="8.25,188.65 8.44,191.45 9.03,193.45 9.99,194.65 11.35,195.05"/>
        <lane id=":10_0_2" index="2" speed="10.00" length="7.91" shape="8.25,188.65 8.44,192.89 9.03,195.92 9.99,197.74 11.35,198.35"/>
    </edge>
    <edge id=":10_3" function="internal">
        <lane id=":10_3_0" index="0" speed="10.00" length="12.85" shape="8.25,188.65 8.25,192.46 8.25,195.07 8.25,197.69 8.25,201.50"/>
        <lane id=":10_3_1" index="1" speed="10.00" length="12.85" shape="4.95,188.65 4.95,192.46 4.95,195.07 4.95,197.69 4.95,201.50"/>
        <lane id=":10_3_2" index="2" speed="10.00" length="12.85" shape="1.65,188.65 1.65,192.46 1.65,195.07 1.65,197.69 1.65,201.50"/>
    </edge>
    <edge id=":11_0" function="internal">
        <lane id=":11_0_0" index="0" speed="10.00" length="5.00" shape="108.25,188.65 108.44,190.01 109.03,190.97 109.99,191.56 111.35,191.75"/>
    </edge>
    <edge id=":11_1" function="internal">
        <lane id=":11_1_0" index="0" speed="10.00" length="12.80" shape="108.25,188.65 108.25,192.45 108.25,195.05 108.25,197.65 108.25,201.45"/>
        <lane id=":11_1_1" index="1" speed="10.00" length="12.80" shape="104.95,188.65 104.95,192.45 104.95,195.05 104.95,197.65 104.95,201.45"/>
        <lane id=":11_1_2" index="2" speed="10.00" length="12.80" shape="101.65,188.65 101.65,192.45 101.65,195.05 101.65,197.65 101.65,201.45"/>
    </edge>
    <edge id=":11_4" function="internal">
        <lane id=":11_4_0" index="0" speed="10.00" length="13.35" shape="98.55,191.75 102.41,192.27 104.95,193.40 107.49,194.53 111.35,195.05"/>
        <lane id=":11_4_1" index="1" speed="10.00" length="13.35" shape="98.55,195.05 102.41,195.57 104.95,196.70 107.49,197.83 111.35,198.35"/>
    </edge>
    <edge id=":11_6" function="internal">
        <lane id=":11_6_0" index="0" speed="10.00" length="6.42" shape="98.55,198.35 101.35,198.54 103.35,199.12 104.55,200.09 104.95,201.45"/>
        <lane id=":11_6_1" index="1" speed="10.00" length="6.42" shape="98.55,198.35 99.91,198.54 100.88,199.12 101.46,200.09 101.65,201.45"/>
    </edge>
    <edge id=":12_0" function="internal">
        <lane id=":12_0_0" index="0" speed="10.00" length="5.00" shape="208.25,188.65 208.44,190.01 209.03,190.97 209.99,191.56 211.35,191.75"/>
    </edge>
    <edge id=":12_1" function="internal">
        <lane id=":12_1_0" index="0" speed="10.00" length="12.80" shape="208.25,188.65 208.25,192.45 208.25,195.05 208.25,197.65 208.25,201.45"/>
        <lane id=":12_1_1" index="1" speed="10.00" length="12.80" shape="204.95,188.65 204.95,192.45 204.95,195.05 204.95,197.65 204.95,201.45"/>
        <lane id=":12_1_2" index="2" speed="10.00" length="12.80" shape="201.65,188.65 201.65,192.45 201.65,195.05 201.65,197.65 201.65,201.45"/>
    </edge>
    <edge id=":12_4" function="internal">
        <lane id=":12_4_0" index="0" speed="10.00" length="13.35" shape="198.55,191.75 202.41,192.27 204.95,193.40 207.49,194.53 211.35,195.05"/>
        <lane id=":12_4_1" index="1" speed="10.00" length="13.35" shape="198.55,195.05 202.41,195.57 204.95,196.70 207.49,197.83 211.35,198.35"/>
    </edge>
    <edge id=":12_6" function="internal">
        <lane id=":12_6_0" index="0" speed="10.00" length="6.42" shape="198.55,198.35 201.35,198.54 203.35,199.12 204.55,200.09 204.95,201.45"/>
        <lane id=":12_6_1" index="1" speed="10.00" length="6.42" shape="198.55,198.35 199.91,198.54 200.88,199.12 201.46,200.09 201.65,201.45"/>
    </edge>
    <edge id=":13_0" function="internal">
        <lane id=":13_0_0" index="0" speed="10.00" length="5.00" shape="308.25,188.65 308.44,190.01 309.02,190.97 309.99,191.56 311.35,191.75"/>
    </edge>
    <edge id=":13_1" function="internal">
        <lane id=":13_1_0" index="0" speed="10.00" length="12.80" shape="308.25,188.65 308.25,192.45 308.25,195.05 308.25,197.65 308.25,201.45"/>
        <lane id=":13_1_1" index="1" speed="10.00" length="12.80" shape="304.95,188.65 304.95,192.45 304.95,195.05 304.95,197.65 304.95,201.45"/>
        <lane id=":13_1_2" index="2" speed="10.00" length="12.80" shape="301.65,188.65 301.65,192.45 301.65,195.05 301.65,197.65 301.65,201.45"/>
    </edge>
    <edge id=":13_4" function="internal">
        <lane id=":13_4_0" index="0" speed="10.00" length="13.35" shape="298.55,191.75 302.41,192.27 304.95,193.40 307.49,194.53 311.35,195.05"/>
        <lane id=":13_4_1" index="1" speed="10.00" length="13.35" shape="298.55,195.05 302.41,195.57 304.95,196.70 307.49,197.83 311.35,198.35"/>
    </edge>
    <edge id=":13_6" function="internal">
        <lane id=":13_6_0" index="0" speed="10.00" length="6.42" shape="298.55,198.35 301.35,198.54 303.35,199.12 304.55,200.09 304.95,201.45"/>
        <lane id=":13_6_1" index="1" speed="10.00" length="6.42" shape="298.55,198.35 299.91,198.54 300.88,199.12 301.46,200.09 301.65,201.45"/>
    </edge>
    <edge id=":14_0" function="internal">
        <lane id=":14_0_0" index="0" speed="10.00" length="12.85" shape="408.25,188.65 408.25,192.46 408.25,195.07 408.25,197.69 408.25,201.50"/>
        <lane id=":14_0_1" index="1" speed="10.00" length="12.85" shape="404.95,188.65 404.95,192.46 404.95,195.07 404.95,197.69 404.95,201.50"/>
        <lane id=":14_0_2" index="2" speed="10.00" length="12.85" shape="401.65,188.65 401.65,192.46 401.65,195.07 401.65,197.69 401.65,201.50"/>
    </edge>
    <edge id=":14_3" function="internal">
        <lane id=":14_3_0" index="0" speed="10.00" length="10.36" shape="398.55,191.75 402.79,192.36 405.82,194.19 407.64,197.23 408.25,201.50"/>
        <lane id=":14_3_1" index="1" speed="10.00" length="10.36" shape="398.55,195.05 401.35,195.45 403.35,196.66 404.55,198.68 404.95,201.50"/>
        <lane id=":14_3_2" index="2" speed="10.00" length="10.36" shape="398.55,198.35 399.91,198.55 400.88,199.14 401.46,200.12 401.65,201.50"/>
    </edge>
    <edge id=":15_0" function="internal">
        <lane id=":15_0_0" index="0" speed="10.00" length="7.90" shape="8.25,290.15 8.35,290.85 8.65,291.35 9.15,291.65 9.85,291.75"/>
        <lane id=":15_0_1" index="1" speed="10.00" length="7.90" shape="4.95,290.15 5.26,292.29 6.18,293.82 7.71,294.74 9.85,295.05"/>
        <lane id=":15_0_2" index="2" speed="10.00" length="7.90" shape="1.65,290.15 2.16,293.74 3.70,296.30 6.26,297.84 9.85,298.35"/>
    </edge>
    <edge id=":16_0" function="internal">
        <lane id=":16_0_0" index="0" speed="10.00" length="10.32" shape="108.25,288.65 108.44,290.01 109.03,290.98 109.99,291.56 111.35,291.75"/>
        <lane id=":16_0_1" index="1" speed="10.00" length="10.32" shape="104.95,288.65 105.35,291.45 106.55,293.45 108.55,294.65 111.35,295.05"/>
        <lane id=":16_0_2" index="2" speed="10.00" length="10.32" shape="101.65,288.65 102.26,292.89 104.08,295.93 107.11,297.74 111.35,298.35"/>
    </edge>
    <edge id=":16_3" function="internal">
        <lane id=":16_3_0" index="0" speed="10.00" length="12.85" shape="98.50,291.75 102.31,291.75 104.93,291.75 107.54,291.75 111.35,291.75"/>
        <lane id=":16_3_1" index="1" speed="10.00" length="12.85" shape="98.50,295.05 102.31,295.05 104.93,295.05 107.54,295.05 111.35,295.05"/>
        <lane id=":16_3_2" index="2" speed="10.00" length="12.85" shape="98.50,298.35 102.31,298.35 104.93,298.35 107.54,298.35 111.35,298.35"/>
    </edge>
    <edge id=":17_0" function="internal">
        <lane id=":17_0_0" index="0" speed="10.00" length="10.32" shape="208.25,288.65 208.44,290.01 209.03,290.98 209.99,291.56 211.35,291.75"/>
        <lane id=":17_0_1" index="1" speed="10.00" length="10.32" shape="204.95,288.65 205.35,291.45 206.55,293.45 208.55,294.65 211.35,295.05"/>
        <lane id=":17_0_2" index="2" speed="10.00" length="10.32" shape="201.65,288.65 202.26,292.89 204.08,295.93 207.11,297.74 211.35,298.35"/>
    </edge>
    <edge id=":17_3" function="internal">
        <lane id=":17_3_0" index="0" speed="10.00" length="12.85" shape="198.50,291.75 202.31,291.75 204.93,291.75 207.54,291.75 211.35,291.75"/>
        <lane id=":17_3_1" index="1" speed="10.00" length="12.85" shape="198.50,295.05 202.31,295.05 204.93,295.05 207.54,295.05 211.35,295.05"/>
        <lane id=":17_3_2" index="2" speed="10.00" length="12.85" shape="198.50,298.35 202.31,298.35 204.93,298.35 207.54,298.35 211.35,298.35"/>
    </edge>
    <edge id=":18_0" function="internal">
        <lane id=":18_0_0" index="0" speed="10.00" length="10.32" shape="308.25,288.65 308.44,290.01 309.02,290.98 309.99,291.56 311.35,291.75"/>
        <lane id=":18_0_1" index="1" speed="10.00" length="10.32" shape="304.95,288.65 305.35,291.45 306.55,293.45 308.55,294.65 311.35,295.05"/>
        <lane id=":18_0_2" index="2" speed="10.00" length="10.32" shape="301.65,288.65 302.26,292.89 304.07,295.93 307.11,297.74 311.35,298.35"/>
    </edge>
    <edge id=":18_3" function="internal">
        <lane id=":18_3_0" index="0" speed="10.00" length="12.85" shape="298.50,291.75 302.31,291.75 304.93,291.75 307.54,291.75 311.35,291.75"/>
        <lane id=":18_3_1" index="1" speed="10.00" length="12.85" shape="298.50,295.05 302.31,295.05 304.93,295.05 307.54,295.05 311.35,295.05"/>
        <lane id=":18_3_2" index="2" speed="10.00" length="12.85" shape="298.50,298.35 302.31,298.35 304.93,298.35 307.54,298.35 311.35,298.35"/>
    </edge>
    <edge id=":2_0" function="internal">
        <lane id=":2_0_0" index="0" speed="10.00" length="12.85" shape="198.50,-8.25 202.31,-8.25 204.93,-8.25 207.54,-8.25 211.35,-8.25"/>
        <lane id=":2_0_1" index="1" speed="10.00" length="12.85" shape="198.50,-4.95 202.31,-4.95 204.93,-4.95 207.54,-4.95 211.35,-4.95"/>
        <lane id=":2_0_2" index="2" speed="10.00" length="12.85" shape="198.50,-1.65 202.31,-1.65 204.93,-1.65 207.54,-1.65 211.35,-1.65"/>
    </edge>
    <edge id=":2_3" function="internal">
        <lane id=":2_3_0" index="0" speed="10.00" length="7.95" shape="198.50,-1.65 202.77,-1.46 205.81,-0.88 207.64,0.09 208.25,1.45"/>
        <lane id=":2_3_1" index="1" speed="10.00" length="7.95" shape="198.50,-1.65 201.32,-1.46 203.34,-0.88 204.55,0.09 204.95,1.45"/>
        <lane id=":2_3_2" index="2" speed="10.00" length="7.95" shape="198.50,-1.65 199.88,-1.46 200.86,-0.88 201.45,0.09 201.65,1.45"/>
    </edge>
    <edge id=":3_0" function="internal">
        <lane id=":3_0_0" index="0" speed="10.00" length="12.85" shape="298.50,-8.25 302.31,-8.25 304.93,-8.25 307.54,-8.25 311.35,-8.25"/>
        <lane id=":3_0_1" index="1" speed="10.00" length="12.85" shape="298.50,-4.95 302.31,-4.95 304.93,-4.95 307.54,-4.95 311.35,-4.95"/>
        <lane id=":3_0_2" index="2" speed="10.00" length="12.85" shape="298.50,-1.65 302.31,-1.65 304.93,-1.65 307.54,-1.65 311.35,-1.65"/>
    </edge>
    <edge id=":3_3" function="internal">
        <lane id=":3_3_0" index="0" speed="10.00" length="7.95" shape="298.50,-1.65 302.77,-1.46 305.81,-0.88 307.64,0.09 308.25,1.45"/>
        <lane id=":3_3_1" index="1" speed="10.00" length="7.95" shape="298.50,-1.65 301.32,-1.46 303.34,-0.88 304.55,0.09 304.95,1.45"/>
        <lane id=":3_3_2" index="2" speed="10.00" length="7.95" shape="298.50,-1.65 299.88,-1.46 300.86,-0.88 301.45,0.09 301.65,1.45"/>
    </edge>
    <edge id=":4_0" function="internal">
        <lane id=":4_0_0" index="0" speed="10.00" length="7.90" shape="400.05,-8.25 403.64,-7.74 406.20,-6.20 407.74,-3.64 408.25,-0.05"/>
        <lane id=":4_0_1" index="1" speed="10.00" length="7.90" shape="400.05,-4.95 402.19,-4.64 403.72,-3.72 404.64,-2.19 404.95,-0.05"/>
        <lane id=":4_0_2" index="2" speed="10.00" length="7.90" shape="400.05,-1.65 400.75,-1.55 401.25,-1.25 401.55,-0.75 401.65,-0.05"/>
    </edge>
    <edge id=":5_0" function="internal">
        <lane id=":5_0_0" index="0" speed="10.00" length="7.91" shape="8.25,88.65 8.44,90.01 9.03,90.97 9.99,91.56 11.35,91.75"/>
        <lane id=":5_0_1" index="1" speed="10.00" length="7.91" shape="8.25,88.65 8.44,91.45 9.03,93.45 9.99,94.65 11.35,95.05"/>
        <lane id=":5_0_2" index="2" speed="10.00" length="7.91" shape="8.25,88.65 8.44,92.89 9.03,95.92 9.99,97.74 11.35,98.35"/>
    </edge>
    <edge id=":5_3" function="internal">
        <lane id=":5_3_0" index="0" speed="10.00" length="12.85" shape="8.25,88.65 8.25,92.46 8.25,95.07 8.25,97.69 8.25,101.50"/>
        <lane id=":5_3_1" index="1" speed="10.00" length="12.85" shape="4.95,88.65 4.95,92.46 4.95,95.07 4.95,97.69 4.95,101.50"/>
        <lane id=":5_3_2" index="2" speed="10.00" length="12.85" shape="1.65,88.65 1.65,92.46 1.65,95.07 1.65,97.69 1.65,101.50"/>
    </edge>
    <edge id=":6_0" function="internal">
        <lane id=":6_0_0" index="0" speed="10.00" length="5.00" shape="108.25,88.65 108.44,90.01 109.03,90.97 109.99,91.56 111.35,91.75"/>
    </edge>
    <edge id=":6_1" function="internal">
        <lane id=":6_1_0" index="0" speed="10.00" length="12.80" shape="108.25,88.65 108.25,92.45 108.25,95.05 108.25,97.65 108.25,101.45"/>
        <lane id=":6_1_1" index="1" speed="10.00" length="12.80" shape="104.95,88.65 104.95,92.45 104.95,95.05 104.95,97.65 104.95,101.45"/>
        <lane id=":6_1_2" index="2" speed="10.00" length="12.80" shape="101.65,88.65 101.65,92.45 101.65,95.05 101.65,97.65 101.65,101.45"/>
    </edge>
    <edge id=":6_4" function="internal">
        <lane id=":6_4_0" index="0" speed="10.00" length="13.35" shape="98.55,91.75 102.41,92.27 104.95,93.40 107.49,94.53 111.35,95.05"/>
        <lane id=":6_4_1" index="1" speed="10.00" length="13.35" shape="98.55,95.05 102.41,95.57 104.95,96.70 107.49,97.83 111.35,98.35"/>
    </edge>
    <edge id=":6_6" function="internal">
        <lane id=":6_6_0" index="0" speed="10.00" length="6.42" shape="98.55,98.35 101.35,98.54 103.35,99.12 104.55,100.09 104.95,101.45"/>
        <lane id=":6_6_1" index="1" speed="10.00" length="6.42" shape="98.55,98.35 99.91,98.54 100.88,99.12 101.46,100.09 101.65,101.45"/>
    </edge>
    <edge id=":7_0" function="internal">
        <lane id=":7_0_0" index="0" speed="10.00" length="5.00" shape="208.25,88.65 208.44,90.01 209.03,90.97 209.99,91.56 211.35,91.75"/>
    </edge>
    <edge id=":7_1" function="internal">
        <lane id=":7_1_0" index="0" speed="10.00" length="12.80" shape="208.25,88.65 208.25,92.45 208.25,95.05 208.25,97.65 208.25,101.45"/>
        <lane id=":7_1_1" index="1" speed="10.00" length="12.80" shape="204.95,88.65 204.95,92.45 204.95,95.05 204.95,97.65 204.95,101.45"/>
        <lane id=":7_1_2" index="2" speed="10.00" length="12.80" shape="201.65,88.65 201.65,92.45 201.65,95.05 201.65,97.65 201.65,101.45"/>
    </edge>
    <edge id=":7_4" function="internal">
        <lane id=":7_4_0" index="0" speed="10.00" length="13.35" shape="198.55,91.75 202.41,92.27 204.95,93.40 207.49,94.53 211.35,95.05"/>
        <lane id=":7_4_1" index="1" speed="10.00" length="13.35" shape="198.55,95.05 202.41,95.57 204.95,96.70 207.49,97.83 211.35,98.35"/>
    </edge>
    <edge id=":7_6" function="internal">
        <lane id=":7_6_0" index="0" speed="10.00" length="6.42" shape="198.55,98.35 201.35,98.54 203.35,99.12 204.55,100.09 204.95,101.45"/>
        <lane id=":7_6_1" index="1" speed="10.00" length="6.42" shape="198.55,98.35 199.91,98.54 200.88,99.12 201.46,100.09 201.65,101.45"/>
    </edge>
    <edge id=":8_0" function="internal">
        <lane id=":8_0_0" index="0" speed="10.00" length="5.00" shape="308.25,88.65 308.44,90.01 309.02,90.97 309.99,91.56 311.35,91.75"/>
    </edge>
    <edge id=":8_1" function="internal">
        <lane id=":8_1_0" index="0" speed="10.00" length="12.80" shape="308.25,88.65 308.25,92.45 308.25,95.05 308.25,97.65 308.25,101.45"/>
        <lane id=":8_1_1" index="1" speed="10.00" length="12.80" shape="304.95,88.65 304.95,92.45 304.95,95.05 304.95,97.65 304.95,101.45"/>
        <lane id=":8_1_2" index="2" speed="10.00" length="12.80" shape="301.65,88.65 301.65,92.45 301.65,95.05 301.65,97.65 301.65,101.45"/>
    </edge>
    <edge id=":8_4" function="internal">
        <lane id=":8_4_0" index="0" speed="10.00" length="13.35" shape="298.55,91.75 302.41,92.27 304.95,93.40 307.49,94.53 311.35,95.05"/>
        <lane id=":8_4_1" index="1" speed="10.00" length="13.35" shape="298.55,95.05 302.41,95.57 304.95,96.70 307.49,97.83 311.35,98.35"/>
    </edge>
    <edge id=":8_6" function="internal">
        <lane id=":8_6_0" index="0" speed="10.00" length="6.42" shape="298.55,98.35 301.35,98.54 303.35,99.12 304.55,100.09 304.95,101.45"/>
        <lane id=":8_6_1" index="1" speed="10.00" length="6.42" shape="298.55,98.35 299.91,98.54 300.88,99.12 301.46,100.09 301.65,101.45"/>
    </edge>
    <edge id=":9_0" function="internal">
        <lane id=":9_0_0" index="0" speed="10.00" length="12.85" shape="408.25,88.65 408.25,92.46 408.25,95.07 408.25,97.69 408.25,101.50"/>
        <lane id=":9_0_1" index="1" speed="10.00" length="12.85" shape="404.95,88.65 404.95,92.46 404.95,95.07 404.95,97.69 404.95,101.50"/>
        <lane id=":9_0_2" index="2" speed="10.00" length="12.85" shape="401.65,88.65 401.65,92.46 401.65,95.07 401.65,97.69 401.65,101.50"/>
    </edge>
    <edge id=":9_3" function="internal">
        <lane id=":9_3_0" index="0" speed="10.00" length="10.36" shape="398.55,91.75 402.79,92.36 405.82,94.19 407.64,97.23 408.25,101.50"/>
        <lane id=":9_3_1" index="1" speed="10.00" length="10.36" shape="398.55,95.05 401.35,95.45 403.35,96.66 404.55,98.68 404.95,101.50"/>
        <lane id=":9_3_2" index="2" speed="10.00" length="10.36" shape="398.55,98.35 399.91,98.55 400.88,99.14 401.46,100.12 401.65,101.50"/>
    </edge>

    <edge id="a" from="0" to="1" priority="1">
        <lane id="a_0" index="0" speed="10.00" length="87.15" shape="11.35,-8.25 98.50,-8.25"/>
        <lane id="a_1" index="1" speed="10.00" length="87.15" shape="11.35,-4.95 98.50,-4.95"/>
        <lane id="a_2" index="2" speed="10.00" length="87.15" shape="11.35,-1.65 98.50,-1.65"/>
    </edge>
    <edge id="aa" from="14" to="19" priority="1">
        <lane id="aa_0" index="0" speed="10.00" length="87.15" shape="408.25,201.50 408.25,288.65"/>
        <lane id="aa_1" index="1" speed="10.00" length="87.15" shape="404.95,201.50 404.95,288.65"/>
        <lane id="aa_2" index="2" speed="10.00" length="87.15" shape="401.65,201.50 401.65,288.65"/>
    </edge>
    <edge id="ab" from="15" to="16" priority="1">
        <lane id="ab_0" index="0" speed="10.00" length="88.65" shape="9.85,291.75 98.50,291.75"/>
        <lane id="ab_1" index="1" speed="10.00" length="88.65" shape="9.85,295.05 98.50,295.05"/>
        <lane id="ab_2" index="2" speed="10.00" length="88.65" shape="9.85,298.35 98.50,298.35"/>
    </edge>
    <edge id="ac" from="16" to="17" priority="1">
        <lane id="ac_0" index="0" speed="10.00" length="87.15" shape="111.35,291.75 198.50,291.75"/>
        <lane id="ac_1" index="1" speed="10.00" length="87.15" shape="111.35,295.05 198.50,295.05"/>
        <lane id="ac_2" index="2" speed="10.00" length="87.15" shape="111.35,298.35 198.50,298.35"/>
    </edge>
    <edge id="ad" from="17" to="18" priority="1">
        <lane id="ad_0" index="0" speed="10.00" length="87.15" shape="211.35,291.75 298.50,291.75"/>
        <lane id="ad_1" index="1" speed="10.00" length="87.15" shape="211.35,295.05 298.50,295.05"/>
        <lane id="ad_2" index="2" speed="10.00" length="87.15" shape="211.35,298.35 298.50,298.35"/>
    </edge>
    <edge id="ae" from="18" to="19" priority="1">
        <lane id="ae_0" index="0" speed="10.00" length="87.20" shape="311.35,291.75 398.55,291.75"/>
        <lane id="ae_1" index="1" speed="10.00" length="87.20" shape="311.35,295.05 398.55,295.05"/>
        <lane id="ae_2" index="2" speed="10.00" length="87.20" shape="311.35,298.35 398.55,298.35"/>
    </edge>
    <edge id="b" from="1" to="2" priority="1">
        <lane id="b_0" index="0" speed="10.00" length="87.15" shape="111.35,-8.25 198.50,-8.25"/>
        <lane id="b_1" index="1" speed="10.00" length="87.15" shape="111.35,-4.95 198.50,-4.95"/>
        <lane id="b_2" index="2" speed="10.00" length="87.15" shape="111.35,-1.65 198.50,-1.65"/>
    </edge>
    <edge id="c" from="2" to="3" priority="1">
        <lane id="c_0" index="0" speed="10.00" length="87.15" shape="211.35,-8.25 298.50,-8.25"/>
        <lane id="c_1" index="1" speed="10.00" length="87.15" shape="211.35,-4.95 298.50,-4.95"/>
        <lane id="c_2" index="2" speed="10.00" length="87.15" shape="211.35,-1.65 298.50,-1.65"/>
    </edge>
    <edge id="d" from="3" to="4" priority="1">
        <lane id="d_0" index="0" speed="10.00" length="88.70" shape="311.35,-8.25 400.05,-8.25"/>
        <lane id="d_1" index="1" speed="10.00" length="88.70" shape="311.35,-4.95 400.05,-4.95"/>
        <lane id="d_2" index="2" speed="10.00" length="88.70" shape="311.35,-1.65 400.05,-1.65"/>
    </edge>
    <edge id="e" from="0" to="5" priority="1">
        <lane id="e_0" index="0" speed="10.00" length="87.20" shape="8.25,1.45 8.25,88.65"/>
        <lane id="e_1" index="1" speed="10.00" length="87.20" shape="4.95,1.45 4.95,88.65"/>
        <lane id="e_2" index="2" speed="10.00" length="87.20" shape="1.65,1.45 1.65,88.65"/>
    </edge>
    <edge id="f" from="1" to="6" priority="1">
        <lane id="f_0" index="0" speed="10.00" length="87.20" shape="108.25,1.45 108.25,88.65"/>
        <lane id="f_1" index="1" speed="10.00" length="87.20" shape="104.95,1.45 104.95,88.65"/>
        <lane id="f_2" index="2" speed="10.00" length="87.20" shape="101.65,1.45 101.65,88.65"/>
    </edge>
    <edge id="g" from="2" to="7" priority="1">
        <lane id="g_0" index="0" speed="10.00" length="87.20" shape="208.25,1.45 208.25,88.65"/>
        <lane id="g_1" index="1" speed="10.00" length="87.20" shape="204.95,1.45 204.95,88.65"/>
        <lane id="g_2" index="2" speed="10.00" length="87.20" shape="201.65,1.45 201.65,88.65"/>
    </edge>
    <edge id="h" from="3" to="8" priority="1">
        <lane id="h_0" index="0" speed="10.00" length="87.20" shape="308.25,1.45 308.25,88.65"/>
        <lane id="h_1" index="1" speed="10.00" length="87.20" shape="304.95,1.45 304.95,88.65"/>
        <lane id="h_2" index="2" speed="10.00" length="87.20" shape="301.65,1.45 301.65,88.65"/>
    </edge>
    <edge id="i" from="4" to="9" priority="1">
        <lane id="i_0" index="0" speed="10.00" length="88.70" shape="408.25,-0.05 408.25,88.65"/>
        <lane id="i_1" index="1" speed="10.00" length="88.70" shape="404.95,-0.05 404.95,88.65"/>
        <lane id="i_2" index="2" speed="10.00" length="88.70" shape="401.65,-0.05 401.65,88.65"/>
    </edge>
    <edge id="j" from="5" to="6" priority="1">
        <lane id="j_0" index="0" speed="10.00" length="87.20" shape="11.35,91.75 98.55,91.75"/>
        <lane id="j_1" index="1" speed="10.00" length="87.20" shape="11.35,95.05 98.55,95.05"/>
        <lane id="j_2" index="2" speed="10.00" length="87.20" shape="11.35,98.35 98.55,98.35"/>
    </edge>
    <edge id="k" from="6" to="7" priority="1">
        <lane id="k_0" index="0" speed="10.00" length="87.20" shape="111.35,91.75 198.55,91.75"/>
        <lane id="k_1" index="1" speed="10.00" length="87.20" shape="111.35,95.05 198.55,95.05"/>
        <lane id="k_2" index="2" speed="10.00" length="87.20" shape="111.35,98.35 198.55,98.35"/>
    </edge>
    <edge id="l" from="7" to="8" priority="1">
        <lane id="l_0" index="0" speed="10.00" length="87.20" shape="211.35,91.75 298.55,91.75"/>
        <lane id="l_1" index="1" speed="10.00" length="87.20" shape="211.35,95.05 298.55,95.05"/>
        <lane id="l_2" index="2" speed="10.00" length="87.20" shape="211.35,98.35 298.55,98.35"/>
    </edge>
    <edge id="m" from="8" to="9" priority="1">
        <lane id="m_0" index="0" speed="10.00" length="87.20" shape="311.35,91.75 398.55,91.75"/>
        <lane id="m_1" index="1" speed="10.00" length="87.20" shape="311.35,95.05 398.55,95.05"/>
        <lane id="m_2" index="2" speed="10.00" length="87.20" shape="311.35,98.35 398.55,98.35"/>
    </edge>
    <edge id="n" from="5" to="10" priority="1">
        <lane id="n_0" index="0" speed="10.00" length="87.15" shape="8.25,101.50 8.25,188.65"/>
        <lane id="n_1" index="1" speed="10.00" length="87.15" shape="4.95,101.50 4.95,188.65"/>
        <lane id="n_2" index="2" speed="10.00" length="87.15" shape="1.65,101.50 1.65,188.65"/>
    </edge>
    <edge id="o" from="6" to="11" priority="1">
        <lane id="o_0" index="0" speed="10.00" length="87.20" shape="108.25,101.45 108.25,188.65"/>
        <lane id="o_1" index="1" speed="10.00" length="87.20" shape="104.95,101.45 104.95,188.65"/>
        <lane id="o_2" index="2" speed="10.00" length="87.20" shape="101.65,101.45 101.65,188.65"/>
    </edge>
    <edge id="p" from="7" to="12" priority="1">
        <lane id="p_0" index="0" speed="10.00" length="87.20" shape="208.25,101.45 208.25,188.65"/>
        <lane id="p_1" index="1" speed="10.00" length="87.20" shape="204.95,101.45 204.95,188.65"/>
        <lane id="p_2" index="2" speed="10.00" length="87.20" shape="201.65,101.45 201.65,188.65"/>
    </edge>
    <edge id="q" from="8" to="13" priority="1">
        <lane id="q_0" index="0" speed="10.00" length="87.20" shape="308.25,101.45 308.25,188.65"/>
        <lane id="q_1" index="1" speed="10.00" length="87.20" shape="304.95,101.45 304.95,188.65"/>
        <lane id="q_2" index="2" speed="10.00" length="87.20" shape="301.65,101.45 301.65,188.65"/>
    </edge>
    <edge id="r" from="9" to="14" priority="1">
        <lane id="r_0" index="0" speed="10.00" length="87.15" shape="408.25,101.50 408.25,188.65"/>
        <lane id="r_1" index="1" speed="10.00" length="87.15" shape="404.95,101.50 404.95,188.65"/>
        <lane id="r_2" index="2" speed="10.00" length="87.15" shape="401.65,101.50 401.65,188.65"/>
    </edge>
    <edge id="s" from="10" to="11" priority="1">
        <lane id="s_0" index="0" speed="10.00" length="87.20" shape="11.35,191.75 98.55,191.75"/>
        <lane id="s_1" index="1" speed="10.00" length="87.20" shape="11.35,195.05 98.55,195.05"/>
        <lane id="s_2" index="2" speed="10.00" length="87.20" shape="11.35,198.35 98.55,198.35"/>
    </edge>
    <edge id="t" from="11" to="12" priority="1">
        <lane id="t_0" index="0" speed="10.00" length="87.20" shape="111.35,191.75 198.55,191.75"/>
        <lane id="t_1" index="1" speed="10.00" length="87.20" shape="111.35,195.05 198.55,195.05"/>
        <lane id="t_2" index="2" speed="10.00" length="87.20" shape="111.35,198.35 198.55,198.35"/>
    </edge>
    <edge id="u" from="12" to="13" priority="1">
        <lane id="u_0" index="0" speed="10.00" length="87.20" shape="211.35,191.75 298.55,191.75"/>
        <lane id="u_1" index="1" speed="10.00" length="87.20" shape="211.35,195.05 298.55,195.05"/>
        <lane id="u_2" index="2" speed="10.00" length="87.20" shape="211.35,198.35 298.55,198.35"/>
    </edge>
    <edge id="v" from="13" to="14" priority="1">
        <lane id="v_0" index="0" speed="10.00" length="87.20" shape="311.35,191.75 398.55,191.75"/>
        <lane id="v_1" index="1" speed="10.00" length="87.20" shape="311.35,195.05 398.55,195.05"/>
        <lane id="v_2" index="2" speed="10.00" length="87.20" shape="311.35,198.35 398.55,198.35"/>
    </edge>
    <edge id="w" from="10" to="15" priority="1">
        <lane id="w_0" index="0" speed="10.00" length="88.65" shape="8.25,201.50 8.25,290.15"/>
        <lane id="w_1" index="1" speed="10.00" length="88.65" shape="4.95,201.50 4.95,290.15"/>
        <lane id="w_2" index="2" speed="10.00" length="88.65" shape="1.65,201.50 1.65,290.15"/>
    </edge>
    <edge id="x" from="11" to="16" priority="1">
        <lane id="x_0" index="0" speed="10.00" length="87.20" shape="108.25,201.45 108.25,288.65"/>
        <lane id="x_1" index="1" speed="10.00" length="87.20" shape="104.95,201.45 104.95,288.65"/>
        <lane id="x_2" index="2" speed="10.00" length="87.20" shape="101.65,201.45 101.65,288.65"/>
    </edge>
    <edge id="y" from="12" to="17" priority="1">
        <lane id="y_0" index="0" speed="10.00" length="87.20" shape="208.25,201.45 208.25,288.65"/>
        <lane id="y_1" index="1" speed="10.00" length="87.20" shape="204.95,201.45 204.95,288.65"/>